<?xml version="1.0" encoding="UTF-8"?>

<!-- generated on 2025-03-10 16:09:00 by Eclipse SUMO netedit Version 1.22.0
-->

<additional xmlns:xsi="http://www.w3.org/2001/XMLSchema-instance" xsi:noNamespaceSchemaLocation="http://sumo.dlr.de/xsd/additional_file.xsd">
    <!-- MeanDataEdges -->
    <edgeData id="1" file="edge-emissions.xml" period="10.00"/>
</additional>
