<routes><vehicle depart="0" id="Pertini_20_0" departPos="0" departLane="best" arrivalPost="-1" type="private"><route edges="b63[0] b63[1] b4[0] b4[1][1][0] b4[1][1][1]" /></vehicle><vehicle depart="0" id="Prati_Capraia_10_0" departPos="0" departLane="best" arrivalPost="-1" type="private"><route edges="b3[0] b10" /></vehicle><vehicle depart="0" id="Borgo_100_0" departPos="0" departLane="best" arrivalPost="-1" type="private"><route edges="b6 b100 b7 b3[1] b3[1]b" /></vehicle><vehicle depart="0" id="Gandhi_40_0" departPos="0" departLane="best" arrivalPost="-1" type="private"><route edges="b1[0] ba1[1] b1[1] b38[0] b38[0]a b46 b49[0] b49[1] b55 b53 b53a" /></vehicle><vehicle depart="0" id="Malvasia_70_0" departPos="0" departLane="best" arrivalPost="-1" type="private"><route edges="b52 b51 b50[0] b97 b39[1][0] b39[1][1][0] b39[1][1][1] b45 a67 a80 a127 a77[1][0] a77[1][1]" /></vehicle><vehicle depart="0" id="XXI_Aprile_7_0" departPos="0" departLane="best" arrivalPost="-1" type="private"><route edges="a8 a13 a104 a16 a37 a36 a40 a41 a160 a61 a58[0] a58[1] a66 a117 a209" /></vehicle><vehicle depart="0" id="Costa_12_0" departPos="0" departLane="best" arrivalPost="-1" type="private"><route edges="a78[0] a56a a56b a77bc a77cd a53cd a53[0] a53[1][0] a79 a68 a11 b38[0] b38[0]a b46 b49[0] b49[1] b55 b53 b53a" /></vehicle><vehicle depart="0" id="Turati_10_0" departPos="0" departLane="best" arrivalPost="-1" type="private"><route edges="a195 a61 a58[0] a58[1] a66 a119 a116 a46 a201 a201c a204a[0] a204b[0] a204[1][0] a204[1][1]" /></vehicle><vehicle depart="0" id="Silvani_11_0" departPos="0" departLane="best" arrivalPost="-1" type="private"><route edges="a203[0] b12 b56[0] b56[1][0] b56[1][1] b5[1][0]+66 b5[1][1][1] b16[0] b16[1] b18 b20+19b b2[1][1][1]b" /></vehicle><vehicle depart="0" id="Certosa_9_0" departPos="0" departLane="best" arrivalPost="-1" type="private"><route edges="b22[0] b22[1] b2[1][1][1] b2[1][1][1]b" /></vehicle><vehicle depart="0" id="Pepoli_3_0" departPos="0" departLane="best" arrivalPost="-1" type="ignoring"><route edges="a210 a43[0] a118 a65 a57[0] a57[1] a62 a159 a42 a39 a35 a38 a33 a10" /></vehicle><vehicle depart="0" id="Audinot_7_0" departPos="0" departLane="best" arrivalPost="-1" type="private"><route edges="a131 a117 a209" /></vehicle><vehicle depart="1" id="Pepoli_9_1" departPos="0" departLane="best" arrivalPost="-1" type="private"><route edges="a210 a43[0] a43[1] a201 a201c a204a[0] a204b[0] a54" /></vehicle><vehicle depart="1" id="Gandhi_50_1" departPos="0" departLane="best" arrivalPost="-1" type="ignoring"><route edges="b1[0] b25 b23 b27 b36 b46 a181 a18 a69 a161 a194 a91 a186 a109[0] a109[1][0]+20003 a109[1][1] a116 a46 a201 a201c a204a[0] a124" /></vehicle><vehicle depart="2" id="Silvani_11_1" departPos="0" departLane="best" arrivalPost="-1" type="private"><route edges="a203[0] b12 b56[0] b56[1][0] b56[1][1] b5[1][0]+66 b5[1][1][1] b8 b3[1] b3[1]b" /></vehicle><vehicle depart="2" id="Pertini_20_1" departPos="0" departLane="best" arrivalPost="-1" type="private"><route edges="b63[0] b63[1] b4[0] b4[1][1][0] b4[1][1][1]" /></vehicle><vehicle depart="2" id="Costa_12_1" departPos="0" departLane="best" arrivalPost="-1" type="private"><route edges="a78[0] a56a a56b a77bc a77cd a53cd a53[0] a53[1][0] a79 a68 a11 b38[0] b38[0]a b46 b49[0] b49[1] b55 b53 b53a" /></vehicle><vehicle depart="3" id="Pepoli_3_2" departPos="0" departLane="best" arrivalPost="-1" type="ignoring"><route edges="a210 a43[0] a118 a65 a57[0] a57[1] a62 a159 a42 a39 a35 a38 a33 a10" /></vehicle><vehicle depart="3" id="Gandhi_60_2" departPos="0" departLane="best" arrivalPost="-1" type="private"><route edges="b1[0] ba1[1] b1[1] a72[0] a72[1] a69 a161 a122 a1b a1 a204a[0] a204b[0] a204[1][0] a204[1][1]" /></vehicle><vehicle depart="4" id="Gandhi_30_3" departPos="0" departLane="best" arrivalPost="-1" type="private"><route edges="b1[0] b25 b23 b17[0] b17[1] b11[0] b11[1][1] b70" /></vehicle><vehicle depart="4" id="Pertini_20_2" departPos="0" departLane="best" arrivalPost="-1" type="private"><route edges="b63[0] b63[1] b4[0] b4[1][1][0] b4[1][1][1]" /></vehicle><vehicle depart="4" id="Silvani_7_2" departPos="0" departLane="best" arrivalPost="-1" type="private"><route edges="a203[0] a203[1] a203[1]b a202 a34 a113 a209" /></vehicle><vehicle depart="4" id="Prati_Capraia_10_1" departPos="0" departLane="best" arrivalPost="-1" type="private"><route edges="b3[0] b10" /></vehicle><vehicle depart="4" id="Malvasia_70_1" departPos="0" departLane="best" arrivalPost="-1" type="private"><route edges="b52 b51 b50[0] b97 b39[1][0] b39[1][1][0] b39[1][1][1] b45 a67 a80 a127 a77[1][0] a77ab a77bc a77cd a53cd a82 a51 a219 a218 a38 a33 a10" /></vehicle><vehicle depart="5" id="Costa_1_2" departPos="0" departLane="best" arrivalPost="-1" type="private"><route edges="a78[0] a56a a56b a77bc a77cd a53cd a53[0] a53[1][0] a79 a68 a11 b2[0] b2[1][0] b2[1][1][0] b2[1][1][1] b2[1][1][1]b" /></vehicle><vehicle depart="5" id="Pepoli_11_3" departPos="0" departLane="best" arrivalPost="-1" type="private"><route edges="a210 a43[0] a43[1] a201 a201c a204a[0] a124 b12 b56[0] b56[1][0] b56[1][1] b5[1][0]+66 b5[1][1][1] b8 b10" /></vehicle><vehicle depart="6" id="Pertini_22_3" departPos="0" departLane="best" arrivalPost="-1" type="private"><route edges="b13[0] b13[1] b4[0] b4[1][1][0] b4[1][1][1]" /></vehicle><vehicle depart="6" id="Pepoli_10_4" departPos="0" departLane="best" arrivalPost="-1" type="private"><route edges="a210 a43[0] a43[1] a201 a201c a204a[0] a204b[0] a204[1][0] a204[1][1]" /></vehicle><vehicle depart="7" id="Silvani_7_3" departPos="0" departLane="best" arrivalPost="-1" type="private"><route edges="a203[0] a203[1] a203[1]b a202 a34 a113 a209" /></vehicle><vehicle depart="7" id="XXI_Aprile_94_2" departPos="0" departLane="best" arrivalPost="-1" type="private"><route edges="a8 a13 a104 a24 a22 a59 a53cd a53[0] a53[1][0] a79 a74 a72[1] a69 a161 a122 a1b a1 a204a[0] a204b[0] a54" /></vehicle><vehicle depart="7" id="Gandhi_52_5" departPos="0" departLane="best" arrivalPost="-1" type="ignoring"><route edges="b1[0] ba1[1] b1[1] b38[0] b38[0]a b46 a181 a18 a69 a161 a122 a1b a1 a204a[0] a204b[0] a204[1][0] a125" /></vehicle><vehicle depart="7" id="Costa_12_3" departPos="0" departLane="best" arrivalPost="-1" type="private"><route edges="a78[0] a56a a56b a77bc a77cd a53cd a53[0] a53[1][0] a79 a68 a11 b38[0] b38[0]a b46 b49[0] b49[1] b55 b53 b53a" /></vehicle><vehicle depart="8" id="Pepoli_11_5" departPos="0" departLane="best" arrivalPost="-1" type="private"><route edges="a210 a43[0] a118 a65 a57[0] a57[1] a62 a159 a42 a39 a35 a38 a50 a19 a22 a59 a53cd a53[0] a53[1][0] a53[1][1][0] a77[1][0] a77[1][1]" /></vehicle><vehicle depart="8" id="Pertini_23_4" departPos="0" departLane="best" arrivalPost="-1" type="private"><route edges="b13[0] b13[1] b4[0] b4[1][1][0] b4[1][1][1]" /></vehicle><vehicle depart="9" id="Gandhi_60_6" departPos="0" departLane="best" arrivalPost="-1" type="private"><route edges="b1[0] b25 b23 b17[0] b17[1] b11[0] b11[1][1] b70" /></vehicle><vehicle depart="9" id="Silvani_7_4" departPos="0" departLane="best" arrivalPost="-1" type="private"><route edges="a203[0] a203[1] a203[1]b a202 a34 a113 a209" /></vehicle><vehicle depart="9" id="Malvasia_100_2" departPos="0" departLane="best" arrivalPost="-1" type="private"><route edges="b52 b51 b56[0] b56[1][0] b56[1][1] b5[1][0]+66 b5[1][1][1] b8 b3[1] b3[1]b" /></vehicle><vehicle depart="9" id="Prati_Capraia_100_2" departPos="0" departLane="best" arrivalPost="-1" type="private"><route edges="b3[0] b3[1] b3[1]b" /></vehicle><vehicle depart="10" id="Costa_1_4" departPos="0" departLane="best" arrivalPost="-1" type="private"><route edges="a78[0] a56a a56b a77bc a77cd a53cd a53[0] a53[1][0] a79 a68 a11 b2[0] b2[1][0] b2[1][1][0] b2[1][1][1] b2[1][1][1]b" /></vehicle><vehicle depart="10" id="Pepoli_11_6" departPos="0" departLane="best" arrivalPost="-1" type="private"><route edges="a210 a43[0] a118 a65 a57[0] a57[1] a62 a159 a42 a39 a35 a38 a50 a19 a22 a59 a53cd a53[0] a53[1][0] a53[1][1][0] a77[1][0] a77[1][1]" /></vehicle><vehicle depart="10" id="Gandhi_60_7" departPos="0" departLane="best" arrivalPost="-1" type="private"><route edges="b1[0] ba1[1] b1[1] a72[0] a72[1] a69 a161 a122 a1b a1 a204a[0] a204b[0] a204[1][0] a204[1][1]" /></vehicle><vehicle depart="10" id="Pertini_62_5" departPos="0" departLane="best" arrivalPost="-1" type="private"><route edges="b63[0] b63[1] b4[0] b28 b28a b16[1] b18 b20+19a ba1[1] b1[1] a72[0] a72[1] a69 a161 a122 a1b a1 a204a[0] a204b[0] a204[1][0] a204[1][1]" /></vehicle><vehicle depart="11" id="Silvani_7_5" departPos="0" departLane="best" arrivalPost="-1" type="private"><route edges="a203[0] a203[1] a203[1]b a202 a34 a113 a209" /></vehicle><vehicle depart="12" id="Gandhi_60_8" departPos="0" departLane="best" arrivalPost="-1" type="private"><route edges="b1[0] ba1[1] b1[1] a72[0] a72[1] a69 a161 a122 a3 a2 a202 a34 a113 a209" /></vehicle><vehicle depart="12" id="Pepoli_11_7" departPos="0" departLane="best" arrivalPost="-1" type="private"><route edges="a210 a43[0] a43[1] a201 a201c a204a[0] a124 b12 b56[0] b56[1][0] b56[1][1] b70" /></vehicle><vehicle depart="12" id="Borgo_100_2" departPos="0" departLane="best" arrivalPost="-1" type="private"><route edges="b6 b100 b7 b3[1] b3[1]b" /></vehicle><vehicle depart="12" id="Pertini_60_6" departPos="0" departLane="best" arrivalPost="-1" type="private"><route edges="b13[0] b14 b18 b20+19a ba1[1] b1[1] a72[0] a72[1] a69 a161 a122 a3 a2 a202 a34 a113 a209" /></vehicle><vehicle depart="13" id="Pepoli_11_8" departPos="0" departLane="best" arrivalPost="-1" type="private"><route edges="a210 a43[0] a43[1] a201 a201c a204a[0] a124 b12 b56[0] b56[1][0] b56[1][1] b5[1][0]+66 b5[1][1][1] b8 b10" /></vehicle><vehicle depart="14" id="Malvasia_100_3" departPos="0" departLane="best" arrivalPost="-1" type="private"><route edges="b52 b51 b56[0] b56[1][0] b56[1][1] b5[1][0]+66 b5[1][1][1] b8 b3[1] b3[1]b" /></vehicle><vehicle depart="14" id="Prati_Capraia_100_3" departPos="0" departLane="best" arrivalPost="-1" type="private"><route edges="b3[0] b3[1] b3[1]b" /></vehicle><vehicle depart="14" id="XXI_Aprile_113_4" departPos="0" departLane="best" arrivalPost="-1" type="private"><route edges="a8 a13 a104 a24 a22 a59 a53cd a53[0] a53[1][0] a79 a68 a11 b38[0] b38[0]a b46 b49[0] b49[1] b55 b53 b53a" /></vehicle><vehicle depart="14" id="Silvani_3_6" departPos="0" departLane="best" arrivalPost="-1" type="ignoring"><route edges="a203[0] b12 b56[0] b39[0] b39[1][0] b39[1][1][0] b39[1][1][1] b45 a67 a80 a127 a77[1][0] a77ab a77bc a77cd a53cd a82 a51 a219 a218 a38 a33 a10" /></vehicle><vehicle depart="15" id="Gandhi_50_10" departPos="0" departLane="best" arrivalPost="-1" type="ignoring"><route edges="b1[0] ba1[1] b1[1] a72[0] a72[1] a69 a161 a122 a1b a1 a204a[0] a124" /></vehicle><vehicle depart="15" id="Pertini_20_7" departPos="0" departLane="best" arrivalPost="-1" type="private"><route edges="b63[0] b63[1] b4[0] b4[1][1][0] b4[1][1][1]" /></vehicle><vehicle depart="15" id="Costa_50_6" departPos="0" departLane="best" arrivalPost="-1" type="private"><route edges="a78[0] a56a am1 a21b a20 a219 a218 a36 a40 a41 a160 a61 a58[0] a58[1] a200 a60" /></vehicle><vehicle depart="15" id="Pepoli_11_9" departPos="0" departLane="best" arrivalPost="-1" type="private"><route edges="a210 a43[0] a43[1] a201 a201c a204a[0] a124 b12 b56[0] b56[1][0] b56[1][1] b70" /></vehicle><vehicle depart="16" id="Silvani_7_7" departPos="0" departLane="best" arrivalPost="-1" type="private"><route edges="a203[0] a203[1] a203[1]b a202 a34 a113 a209" /></vehicle><vehicle depart="17" id="Pertini_30_8" departPos="0" departLane="best" arrivalPost="-1" type="private"><route edges="b13[0] b14 b17[0] b17[1] b11[0] b11[1][1] b70" /></vehicle><vehicle depart="17" id="Gandhi_80_11" departPos="0" departLane="best" arrivalPost="-1" type="private"><route edges="b1[0] b21" /></vehicle><vehicle depart="17" id="XXI_Aprile_104_5" departPos="0" departLane="best" arrivalPost="-1" type="private"><route edges="a8 a13 a104 a24 a22 a59 a53cd a53[0] a78[1][1] a189[0] a189[1][0]+20000 a189[1][1] a191 a69 a161 a122 a1b a1 a204a[0] a204b[0] a204[1][0] a204[1][1]" /></vehicle><vehicle depart="17" id="Pepoli_10_10" departPos="0" departLane="best" arrivalPost="-1" type="private"><route edges="a210 a43[0] a43[1] a201 a201c a204a[0] a204b[0] a204[1][0] a204[1][1]" /></vehicle><vehicle depart="18" id="Borgo_20_3" departPos="0" departLane="best" arrivalPost="-1" type="private"><route edges="b6 b100 b7 b4[1][1][1]" /></vehicle><vehicle depart="18" id="Costa_12_7" departPos="0" departLane="best" arrivalPost="-1" type="private"><route edges="a78[0] a56a a56b a77bc a77cd a53cd a53[0] a53[1][0] a79 a68 a11 b2[0] b2[1][0] b2[1][1][0] b2[1][1][1] b2[1][1][1]b" /></vehicle><vehicle depart="18" id="Silvani_11_8" departPos="0" departLane="best" arrivalPost="-1" type="private"><route edges="a203[0] b12 b56[0] b56[1][0] b56[1][1] b5[1][0]+66 b5[1][1][1] b8 b3[1] b3[1]b" /></vehicle><vehicle depart="18" id="Pepoli_10_11" departPos="0" departLane="best" arrivalPost="-1" type="private"><route edges="a210 a43[0] a43[1] a201 a201c a204a[0] a204b[0] a204[1][0] a204[1][1]" /></vehicle><vehicle depart="19" id="Prati_Capraia_100_4" departPos="0" departLane="best" arrivalPost="-1" type="private"><route edges="b3[0] b3[1] b3[1]b" /></vehicle><vehicle depart="19" id="Pertini_20_9" departPos="0" departLane="best" arrivalPost="-1" type="private"><route edges="b63[0] b63[1] b4[0] b4[1][1][0] b4[1][1][1]" /></vehicle><vehicle depart="19" id="Malvasia_92_4" departPos="0" departLane="best" arrivalPost="-1" type="private"><route edges="b52 b51 b56[0] b56[1][0] b56[1][1] b5[1][0]+66 b5[1][1][1] b16[0] b16[1] b18 b20+19b b2[1][1][1]b" /></vehicle><vehicle depart="20" id="Pepoli_3_12" departPos="0" departLane="best" arrivalPost="-1" type="ignoring"><route edges="a210 a43[0] a43[1] a115 a110 a185 a92 a90 am91 a97 a42 a39 a35 a38 a33 a10" /></vehicle><vehicle depart="20" id="Gandhi_40_13" departPos="0" departLane="best" arrivalPost="-1" type="private"><route edges="b1[0] ba1[1] b1[1] b38[0] b38[0]a b46 b49[0] b49[1] b55 b53 b53a" /></vehicle><vehicle depart="20" id="Costa_50_8" departPos="0" departLane="best" arrivalPost="-1" type="private"><route edges="a78[0] a56a am1 a21b a20 a219 a218 a36 a40 a41 a160 a61 a58[0] a58[1] a200 a60" /></vehicle><vehicle depart="21" id="XXI_Aprile_12_6" departPos="0" departLane="best" arrivalPost="-1" type="private"><route edges="a8 a13 a104 a24 a22 a59 a53cd a53[0] a53[1][0] a79 a68 a11 b38[0] b38[0]a b46 b49[0] b49[1] b55 b53 b53a" /></vehicle><vehicle depart="21" id="Silvani_11_9" departPos="0" departLane="best" arrivalPost="-1" type="private"><route edges="a203[0] b12 b56[0] b39[0] b39[1][0] b98 b34[1][0] b34[1][1] b2[1][0] b24 b23 b15 b13[1] b4[0] b28" /></vehicle><vehicle depart="21" id="Pertini_20_10" departPos="0" departLane="best" arrivalPost="-1" type="private"><route edges="b63[0] b63[1] b4[0] b4[1][1][0] b4[1][1][1]" /></vehicle><vehicle depart="23" id="Costa_12_9" departPos="0" departLane="best" arrivalPost="-1" type="private"><route edges="a78[0] a56a a56b a77bc a77cd a53cd a53[0] a53[1][0] a79 a68 a11 b38[0] b38[0]a b37 b26 b26.-170 b17[0] b17[1] b8 b4[1][1][1]" /></vehicle><vehicle depart="23" id="Pertini_20_11" departPos="0" departLane="best" arrivalPost="-1" type="private"><route edges="b63[0] b63[1] b4[0] b4[1][1][0] b4[1][1][1]" /></vehicle><vehicle depart="23" id="Silvani_7_10" departPos="0" departLane="best" arrivalPost="-1" type="private"><route edges="a203[0] a203[1] a203[1]b a202 a34 a113 a209" /></vehicle><vehicle depart="23" id="Gandhi_60_15" departPos="0" departLane="best" arrivalPost="-1" type="private"><route edges="b1[0] ba1[1] b1[1] a72[0] a72[1] a69 a161 a122 a1b a1 a204a[0] a204b[0] a204[1][0] a204[1][1]" /></vehicle><vehicle depart="24" id="Prati_Capraia_100_5" departPos="0" departLane="best" arrivalPost="-1" type="private"><route edges="b3[0] b3[1] b3[1]b" /></vehicle><vehicle depart="24" id="Malvasia_100_5" departPos="0" departLane="best" arrivalPost="-1" type="private"><route edges="b52 b51 b56[0] b56[1][0] b56[1][1] b5[1][0]+66 b5[1][1][1] b8 b3[1] b3[1]b" /></vehicle><vehicle depart="24" id="Borgo_20_4" departPos="0" departLane="best" arrivalPost="-1" type="private"><route edges="b6 b100 b7 b4[1][1][1]" /></vehicle><vehicle depart="24" id="Pepoli_3_14" departPos="0" departLane="best" arrivalPost="-1" type="ignoring"><route edges="a210 a43[0] a118 a65 a57[0] a57[1] a62 a159 a42 a39 a35 a38 a33 a10" /></vehicle><vehicle depart="24" id="XXI_Aprile_7_7" departPos="0" departLane="best" arrivalPost="-1" type="private"><route edges="a8 a9 a211 a45 a44 a36 a40 a41 a160 a61 a58[0] a58[1] a66 a117 a209" /></vehicle><vehicle depart="25" id="Gandhi_60_16" departPos="0" departLane="best" arrivalPost="-1" type="private"><route edges="b1[0] ba1[1] b1[1] a72[0] a72[1] a69 a161 a122 a1b a1 a204a[0] a204b[0] a204[1][0] a204[1][1]" /></vehicle><vehicle depart="25" id="Pertini_20_12" departPos="0" departLane="best" arrivalPost="-1" type="private"><route edges="b63[0] b63[1] b4[0] b4[1][1][0] b4[1][1][1]" /></vehicle><vehicle depart="25" id="Pepoli_11_15" departPos="0" departLane="best" arrivalPost="-1" type="private"><route edges="a210 a43[0] a43[1] a201 a201c a204a[0] a124 b12 b53 b53a" /></vehicle><vehicle depart="25" id="Silvani_7_11" departPos="0" departLane="best" arrivalPost="-1" type="private"><route edges="a203[0] a203[1] a203[1]b a202 a34 a113 a209" /></vehicle><vehicle depart="26" id="Costa_91_10" departPos="0" departLane="best" arrivalPost="-1" type="private"><route edges="a78[0] a56a a56b a77bc a77cd a53cd a53[0] a78[1][1] a189[0] a189[1][0]+20000 a189[1][1] a191 a69 a161 a122 a1b a1 a204a[0] a204b[0] a54" /></vehicle><vehicle depart="27" id="Pertini_22_13" departPos="0" departLane="best" arrivalPost="-1" type="private"><route edges="b13[0] b13[1] b4[0] b4[1][1][0] b4[1][1][1]" /></vehicle><vehicle depart="27" id="Pepoli_8_16" departPos="0" departLane="best" arrivalPost="-1" type="private"><route edges="a210 a43[0] a43[1] a134 a134b" /></vehicle><vehicle depart="28" id="Costa_12_11" departPos="0" departLane="best" arrivalPost="-1" type="private"><route edges="a78[0] a56a a56b a77bc a77cd a53cd a53[0] a53[1][0] a79 a68 a11 b38[0] b38[0]a b37 b26 b26.-170 b17[0] b17[1] b8 b4[1][1][1]" /></vehicle><vehicle depart="28" id="Gandhi_60_18" departPos="0" departLane="best" arrivalPost="-1" type="private"><route edges="b1[0] ba1[1] b1[1] a72[0] a72[1] a69 a161 a122 a1b a1 a204a[0] a204b[0] a204[1][0] a204[1][1]" /></vehicle><vehicle depart="28" id="Silvani_11_12" departPos="0" departLane="best" arrivalPost="-1" type="private"><route edges="a203[0] a203[1] a203[1]b a202 a34 a113 a118 a65 a57[0] a57[1] a62 a159 a42 a39 a35 a38 a33 a10" /></vehicle><vehicle depart="29" id="Prati_Capraia_30_6" departPos="0" departLane="best" arrivalPost="-1" type="ignoring"><route edges="b3[0] b9 b11[0] b11[1][1] b70" /></vehicle><vehicle depart="29" id="Malvasia_10_6" departPos="0" departLane="best" arrivalPost="-1" type="private"><route edges="b52 b51 b56[0] b56[1][0] b56[1][1] b5[1][0]+66 b5[1][1][1] b8 b10" /></vehicle><vehicle depart="29" id="Pepoli_11_17" departPos="0" departLane="best" arrivalPost="-1" type="private"><route edges="a210 a43[0] a118 a65 a57[0] a57[1] a62 a159 a42 a39 a35 a38 a50 a19 a22 a59 a53cd a53[0] a53[1][0] a53[1][1][0] a77[1][0] a77[1][1]" /></vehicle><vehicle depart="30" id="Silvani_11_13" departPos="0" departLane="best" arrivalPost="-1" type="private"><route edges="a203[0] b12 b56[0] b56[1][0] b56[1][1] b70" /></vehicle><vehicle depart="30" id="Pepoli_10_18" departPos="0" departLane="best" arrivalPost="-1" type="private"><route edges="a210 a43[0] a43[1] a201 a201c a204a[0] a204b[0] a204[1][0] a204[1][1]" /></vehicle><vehicle depart="30" id="Borgo_40_5" departPos="0" departLane="best" arrivalPost="-1" type="ignoring"><route edges="b6 b100 b7 b9 b11[0] b11[1][1] b101 b35[0] b39[0] b39[1][0] b96 b49[1] b55 b53 b53a" /></vehicle><vehicle depart="30" id="Pertini_20_14" departPos="0" departLane="best" arrivalPost="-1" type="private"><route edges="b63[0] b63[1] b4[0] b4[1][1][0] b4[1][1][1]" /></vehicle><vehicle depart="32" id="Pepoli_10_19" departPos="0" departLane="best" arrivalPost="-1" type="private"><route edges="a210 a43[0] a43[1] a201 a201c a204a[0] a204b[0] a204[1][0] a204[1][1]" /></vehicle><vehicle depart="32" id="Gandhi_42_21" departPos="0" departLane="best" arrivalPost="-1" type="ignoring"><route edges="b1[0] b25 b23 b27 b36 b46 b49[0] b49[1] b55 b53 b53a" /></vehicle><vehicle depart="32" id="Pertini_20_15" departPos="0" departLane="best" arrivalPost="-1" type="private"><route edges="b63[0] b63[1] b4[0] b4[1][1][0] b4[1][1][1]" /></vehicle><vehicle depart="33" id="Silvani_11_14" departPos="0" departLane="best" arrivalPost="-1" type="private"><route edges="a203[0] b12 b56[0] b56[1][0] b56[1][1] b70" /></vehicle><vehicle depart="34" id="Malvasia_100_7" departPos="0" departLane="best" arrivalPost="-1" type="private"><route edges="b52 b51 b56[0] b56[1][0] b56[1][1] b5[1][0]+66 b5[1][1][1] b8 b3[1] b3[1]b" /></vehicle><vehicle depart="34" id="Gandhi_60_22" departPos="0" departLane="best" arrivalPost="-1" type="private"><route edges="b1[0] ba1[1] b1[1] b38[0] b38[0]a b37 b26 b26.-170 b18 b20+19b b2[1][1][1]b" /></vehicle><vehicle depart="34" id="Turati_10_1" departPos="0" departLane="best" arrivalPost="-1" type="private"><route edges="a195 a61 a58[0] a58[1] a66 a119 a116 a46 a201 a201c a204a[0] a204b[0] a204[1][0] a204[1][1]" /></vehicle><vehicle depart="34" id="Pertini_20_16" departPos="0" departLane="best" arrivalPost="-1" type="private"><route edges="b63[0] b63[1] b4[0] b4[1][1][0] b4[1][1][1]" /></vehicle><vehicle depart="34" id="Prati_Capraia_10_7" departPos="0" departLane="best" arrivalPost="-1" type="private"><route edges="b3[0] b10" /></vehicle><vehicle depart="34" id="Pepoli_10_20" departPos="0" departLane="best" arrivalPost="-1" type="private"><route edges="a210 a43[0] a43[1] a201 a201c a204a[0] a204b[0] a204[1][0] a204[1][1]" /></vehicle><vehicle depart="35" id="Silvani_7_15" departPos="0" departLane="best" arrivalPost="-1" type="private"><route edges="a203[0] a203[1] a203[1]b a202 a34 a113 a209" /></vehicle><vehicle depart="35" id="XXI_Aprile_12_10" departPos="0" departLane="best" arrivalPost="-1" type="private"><route edges="a8 a13 a104 a24 a22 a59 a53cd a53[0] a53[1][0] a79 a68 a11 b38[0] b38[0]a b38[1][0] b38[1][1] b38[1][1]a b56[1][0] b56[1][1] b70" /></vehicle><vehicle depart="35" id="Gandhi_40_23" departPos="0" departLane="best" arrivalPost="-1" type="private"><route edges="b1[0] ba1[1] b1[1] b38[0] b38[0]a b46 b49[0] b49[1] b55 b53 b53a" /></vehicle><vehicle depart="36" id="Pertini_20_17" departPos="0" departLane="best" arrivalPost="-1" type="private"><route edges="b63[0] b63[1] b4[0] b4[1][1][0] b4[1][1][1]" /></vehicle><vehicle depart="36" id="Borgo_20_6" departPos="0" departLane="best" arrivalPost="-1" type="private"><route edges="b6 b100 b7 b4[1][1][1]" /></vehicle><vehicle depart="36" id="Pepoli_8_21" departPos="0" departLane="best" arrivalPost="-1" type="private"><route edges="a210 a43[0] a43[1] a134 a134b" /></vehicle><vehicle depart="36" id="Certosa_6_1" departPos="0" departLane="best" arrivalPost="-1" type="private"><route edges="b22[0] b22[1] ba1[1] b1[1] a72[0] a72[1] a69 a161 a122 a3 a2 a202 a34 a113 a209" /></vehicle><vehicle depart="36" id="Costa_12_14" departPos="0" departLane="best" arrivalPost="-1" type="private"><route edges="a78[0] a56a a56b a77bc a77cd a53cd a53[0] a53[1][0] a79 a68 a11 b38[0] b38[0]a b46 b49[0] b49[1] b55 b53 b53a" /></vehicle><vehicle depart="37" id="Nigrisoli_50_6" departPos="0" departLane="best" arrivalPost="-1" type="ignoring"><route edges="b65 b101 b35[0] b39[0] b39[1][0] b39[1][1][0] b39[1][1][1] b45 a67 a80 a127 a77[1][0] a77ab a77bc a77cd a53cd a53[0] a78[1][1] a189[0] a189[1][0]+20000 a189[1][1] a188 a87[0] a20001+87[1][0] a87[1][1] am90 a89[0] a20002+89[1][0] a89[1][1] a91 a186 a109[0] a109[1][0]+20003 a109[1][1] a116 a46 a201 a201c a204a[0] a124" /></vehicle><vehicle depart="37" id="Pepoli_10_22" departPos="0" departLane="best" arrivalPost="-1" type="private"><route edges="a210 a43[0] a43[1] a201 a201c a204a[0] a204b[0] a204[1][0] a204[1][1]" /></vehicle><vehicle depart="37" id="Gandhi_60_24" departPos="0" departLane="best" arrivalPost="-1" type="private"><route edges="b1[0] ba1[1] b1[1] a72[0] a72[1] a69 a161 a122 a1b a1 a204a[0] a204b[0] a204[1][0] a204[1][1]" /></vehicle><vehicle depart="37" id="Silvani_11_16" departPos="0" departLane="best" arrivalPost="-1" type="private"><route edges="a203[0] b12 b56[0] b56[1][0] b56[1][1] b5[1][0]+66 b5[1][1][1] b16[0] b16[1] b18 b20+19b b2[1][1][1]b" /></vehicle><vehicle depart="38" id="Prati_Capraia_100_8" departPos="0" departLane="best" arrivalPost="-1" type="private"><route edges="b3[0] b3[1] b3[1]b" /></vehicle><vehicle depart="38" id="Malvasia_94_8" departPos="0" departLane="best" arrivalPost="-1" type="private"><route edges="b52 b51 b56[0] b56[1][0] b56[1][1] b5[1][0]+66 b5[1][1][1] b16[0] b16[1] b18 b20+19b b2[1][1][1]b" /></vehicle><vehicle depart="38" id="Pertini_20_18" departPos="0" departLane="best" arrivalPost="-1" type="private"><route edges="b63[0] b63[1] b4[0] b4[1][1][0] b4[1][1][1]" /></vehicle><vehicle depart="39" id="Costa_1_15" departPos="0" departLane="best" arrivalPost="-1" type="private"><route edges="a78[0] a56a a56b a77bc a77cd a53cd a53[0] a53[1][0] a79 a68 a11 b2[0] b2[1][0] b2[1][1][0] b2[1][1][1] b2[1][1][1]b" /></vehicle><vehicle depart="39" id="XXI_Aprile_12_11" departPos="0" departLane="best" arrivalPost="-1" type="private"><route edges="a8 a13 a104 a24 a22 a59 a53cd a53[0] a53[1][0] a79 a68 a11 b38[0] b38[0]a b46 b49[0] b49[1] b55 b53 b53a" /></vehicle><vehicle depart="39" id="Pepoli_8_23" departPos="0" departLane="best" arrivalPost="-1" type="private"><route edges="a210 a43[0] a43[1] a134 a134b" /></vehicle><vehicle depart="40" id="Gandhi_40_26" departPos="0" departLane="best" arrivalPost="-1" type="private"><route edges="b1[0] ba1[1] b1[1] b38[0] b38[0]a b46 b49[0] b49[1] b55 b53 b53a" /></vehicle><vehicle depart="40" id="Silvani_11_17" departPos="0" departLane="best" arrivalPost="-1" type="private"><route edges="a203[0] b12 b56[0] b56[1][0] b56[1][1] b5[1][0]+66 b5[1][1][1] b16[0] b16[1] b18 b20+19b b2[1][1][1]b" /></vehicle><vehicle depart="40" id="Pertini_20_19" departPos="0" departLane="best" arrivalPost="-1" type="private"><route edges="b63[0] b63[1] b4[0] b4[1][1][0] b4[1][1][1]" /></vehicle><vehicle depart="41" id="Pepoli_11_24" departPos="0" departLane="best" arrivalPost="-1" type="private"><route edges="a210 a43[0] a43[1] a201 a201c a204a[0] a124 b12 b56[0] b56[1][0] b56[1][1] b5[1][0]+66 b5[1][1][1] b16[0] b29[0]" /></vehicle><vehicle depart="42" id="Pepoli_8_25" departPos="0" departLane="best" arrivalPost="-1" type="private"><route edges="a210 a43[0] a43[1] a134 a134b" /></vehicle><vehicle depart="42" id="Audinot_10_2" departPos="0" departLane="best" arrivalPost="-1" type="private"><route edges="a131 a119 a116 a46 a201 a201c a204a[0] a204b[0] a204[1][0] a204[1][1]" /></vehicle><vehicle depart="42" id="Silvani_7_18" departPos="0" departLane="best" arrivalPost="-1" type="private"><route edges="a203[0] a203[1] a203[1]b a202 a34 a113 a209" /></vehicle><vehicle depart="42" id="Borgo_20_7" departPos="0" departLane="best" arrivalPost="-1" type="private"><route edges="b6 b100 b7 b4[1][1][1]" /></vehicle><vehicle depart="42" id="XXI_Aprile_2_12" departPos="0" departLane="best" arrivalPost="-1" type="private"><route edges="a8 a13 a104 a24 a22 a59 a53cd a53[0] a53[1][0] a53[1][1][0] a77[1][0] a77[1][1]" /></vehicle><vehicle depart="43" id="Prati_Capraia_100_9" departPos="0" departLane="best" arrivalPost="-1" type="private"><route edges="b3[0] b3[1] b3[1]b" /></vehicle><vehicle depart="43" id="Gandhi_60_28" departPos="0" departLane="best" arrivalPost="-1" type="private"><route edges="b1[0] ba1[1] b1[1] a72[0] a72[1] a69 a161 a122 a3 a2 a202 a34 a134 a134b" /></vehicle><vehicle depart="43" id="Nigrisoli_90_7" departPos="0" departLane="best" arrivalPost="-1" type="private"><route edges="b65 b5[1][0]+66 b5[1][1][1] b16[0] b16[1] b18 b20+19b b2[1][1][1]b" /></vehicle><vehicle depart="43" id="Pertini_10_20" departPos="0" departLane="best" arrivalPost="-1" type="private"><route edges="b63[0] b63[1] b4[0] b4[1][1][0] b10" /></vehicle><vehicle depart="43" id="Malvasia_100_9" departPos="0" departLane="best" arrivalPost="-1" type="private"><route edges="b52 b51 b56[0] b56[1][0] b56[1][1] b5[1][0]+66 b5[1][1][1] b8 b3[1] b3[1]b" /></vehicle><vehicle depart="44" id="Pepoli_9_26" departPos="0" departLane="best" arrivalPost="-1" type="private"><route edges="a210 a43[0] a43[1] a201 a201c a204a[0] a204b[0] a54" /></vehicle><vehicle depart="44" id="Costa_1_17" departPos="0" departLane="best" arrivalPost="-1" type="private"><route edges="a78[0] a56a a56b a77bc a77cd a53cd a53[0] a53[1][0] a79 a68 a11 b2[0] b2[1][0] b24 b23 b15" /></vehicle><vehicle depart="44" id="Silvani_7_19" departPos="0" departLane="best" arrivalPost="-1" type="private"><route edges="a203[0] a203[1] a203[1]b a202 a34 a113 a209" /></vehicle><vehicle depart="45" id="Pertini_20_21" departPos="0" departLane="best" arrivalPost="-1" type="private"><route edges="b63[0] b63[1] b4[0] b4[1][1][0] b4[1][1][1]" /></vehicle><vehicle depart="45" id="Gandhi_40_29" departPos="0" departLane="best" arrivalPost="-1" type="private"><route edges="b1[0] ba1[1] b1[1] b38[0] b38[0]a b46 b49[0] b49[1] b55 b53 b53a" /></vehicle><vehicle depart="46" id="Gandhi_40_30" departPos="0" departLane="best" arrivalPost="-1" type="private"><route edges="b1[0] ba1[1] b1[1] b38[0] b38[0]a b46 b49[0] b49[1] b55 b53 b53a" /></vehicle><vehicle depart="46" id="Pepoli_10_27" departPos="0" departLane="best" arrivalPost="-1" type="private"><route edges="a210 a43[0] a43[1] a201 a201c a204a[0] a204b[0] a204[1][0] a204[1][1]" /></vehicle><vehicle depart="47" id="Silvani_7_20" departPo