<?xml version="1.0" encoding="UTF-8"?>

<!-- generated on 2021-12-06 10:44:56 by Eclipse SUMO netconvert Version 1.11.0
<configuration xmlns:xsi="http://www.w3.org/2001/XMLSchema-instance" xsi:noNamespaceSchemaLocation="http://sumo.dlr.de/xsd/netconvertConfiguration.xsd">

    <input>
        <sumo-net-file value="acosta_buslanes.net.xml"/>
    </input>

    <output>
        <plain-output-prefix value="acosta"/>
    </output>

    <processing>
        <geometry.min-radius.fix.railways value="false"/>
        <geometry.max-grade.fix value="false"/>
        <offset.disable-normalization value="true"/>
        <lefthand value="false"/>
    </processing>

    <junctions>
        <no-turnarounds value="true"/>
        <junctions.corner-detail value="5"/>
        <junctions.limit-turn-speed value="5.5"/>
        <rectangular-lane-cut value="false"/>
        <check-lane-foes.all value="true"/>
    </junctions>

    <pedestrian>
        <walkingareas value="false"/>
    </pedestrian>

    <report>
        <aggregate-warnings value="5"/>
    </report>

</configuration>
-->

<nodes version="1.9" xmlns:xsi="http://www.w3.org/2001/XMLSchema-instance" xsi:noNamespaceSchemaLocation="http://sumo.dlr.de/xsd/nodes_file.xsd">
    <location netOffset="-683542.41,-4928877.56" convBoundary="0.00,0.00,1817.58,1350.19" origBoundary="-346.830000,0.000000,1817.580000,2148.550000" projParameter="+proj=utm +zone=32 +ellps=WGS84 +datum=WGS84 +units=m +no_defs"/>

    <node id="0" x="1416.60" y="817.04" type="priority"/>
    <node id="1" x="1498.87" y="847.16" type="traffic_light" tl="221" controlledInner="1 201c 203[1]b 4"/>
    <node id="10" x="611.57" y="929.48" type="priority"/>
    <node id="11" x="301.50" y="164.07" type="priority"/>
    <node id="114-end" x="780.75" y="1350.19" type="priority"/>
    <node id="12" x="323.63" y="227.57" type="traffic_light" tl="273"/>
    <node id="13" x="430.94" y="242.32" type="priority"/>
    <node id="131-begin" x="1518.38" y="105.50" type="dead_end"/>
    <node id="133-begin" x="1759.44" y="530.32" type="priority"/>
    <node id="135-begin" x="927.88" y="1098.75" type="priority"/>
    <node id="137-begin" x="456.81" y="1073.44" type="priority"/>
    <node id="15" x="798.63" y="778.69" type="traffic_light" tl="220" controlledInner="69 72[1]"/>
    <node id="16" x="666.63" y="853.07" type="priority"/>
    <node id="165-begin" x="1764.19" y="672.44" type="dead_end"/>
    <node id="166-end" x="1764.44" y="668.94" type="dead_end"/>
    <node id="17" x="820.88" y="849.19" type="priority"/>
    <node id="18" x="465.94" y="377.25" type="priority"/>
    <node id="19" x="383.81" y="368.69" type="priority"/>
    <node id="195-begin" x="990.56" y="0.00" type="dead_end"/>
    <node id="1b" x="1485.04" y="841.29" type="traffic_light" tl="221" controlledInner="1 201c 203[1]b 4"/>
    <node id="1c" x="1504.51" y="825.41" type="traffic_light" tl="221" controlledInner="1 201c 203[1]b 4"/>
    <node id="2" x="1431.00" y="815.44" type="priority"/>
    <node id="203-begin" x="1767.66" y="1335.26" type="dead_end"/>
    <node id="204-end" x="1817.58" y="1347.94" type="dead_end"/>
    <node id="204c" x="1457.38" y="1043.50" type="traffic_light" tl="235" controlledInner="124 125"/>
    <node id="209-end" x="1678.38" y="80.38" type="dead_end"/>
    <node id="20a" x="437.54" y="537.82" type="priority"/>
    <node id="20b" x="442.76" y="529.10" type="priority"/>
    <node id="20c" x="450.67" y="524.52" type="priority"/>
    <node id="21" x="420.50" y="450.32" type="priority"/>
    <node id="210-begin" x="1691.94" y="85.07" type="dead_end"/>
    <node id="212-begin" x="524.94" y="74.13" type="dead_end"/>
    <node id="21m" x="434.50" y="496.50" type="priority"/>
    <node id="220-begin" x="617.00" y="413.94" type="dead_end"/>
    <node id="222-end" x="979.38" y="840.57" type="dead_end"/>
    <node id="224-begin" x="1061.81" y="1193.50" type="dead_end"/>
    <node id="23" x="522.06" y="713.69" type="priority"/>
    <node id="24" x="692.81" y="66.25" type="priority"/>
    <node id="25" x="644.56" y="91.19" type="priority"/>
    <node id="25-begin" x="180.44" y="663.63" type="priority"/>
    <node id="26" x="1602.33" y="570.96" type="priority"/>
    <node id="27" x="1573.69" y="569.00" type="traffic_light" tl="210" controlledInner="113 43[1]"/>
    <node id="28" x="698.00" y="239.25" type="priority"/>
    <node id="28-end" x="640.31" y="38.57" type="dead_end"/>
    <node id="29" x="1529.63" y="663.50" type="priority"/>
    <node id="3" x="1489.07" y="825.69" type="traffic_light" tl="221" controlledInner="1 201c 203[1]b 4"/>
    <node id="30" x="570.50" y="260.56" type="priority"/>
    <node id="30-end" x="631.94" y="48.82" type="dead_end"/>
    <node id="31" x="747.31" y="222.57" type="priority"/>
    <node id="32" x="793.69" y="208.07" type="priority"/>
    <node id="33" x="1608.69" y="435.69" type="priority"/>
    <node id="34" x="1579.38" y="473.19" type="traffic_light" tl="210" controlledInner="113 43[1]"/>
    <node id="35" x="541.13" y="116.75" type="priority"/>
    <node id="36" x="514.38" y="73.75" type="priority"/>
    <node id="37" x="1472.56" y="585.50" type="priority"/>
    <node id="38" x="511.81" y="471.69" type="priority"/>
    <node id="39" x="469.50" y="527.25" type="priority"/>
    <node id="39a" x="456.40" y="522.46" type="priority"/>
    <node id="4-end" x="1640.81" y="890.75" type="dead_end"/>
    <node id="40" x="478.50" y="544.94" type="priority"/>
    <node id="41" x="471.44" y="554.07" type="priority"/>
    <node id="42" x="460.77" y="563.49" type="priority"/>
    <node id="43" x="1466.06" y="1059.07" type="priority"/>
    <node id="44" x="1470.88" y="1073.94" type="traffic_light" tl="235" controlledInner="124 125"/>
    <node id="45" x="393.00" y="511.00" type="priority"/>
    <node id="46" x="1328.50" y="397.82" type="priority"/>
    <node id="47" x="1148.63" y="340.19" type="priority"/>
    <node id="48" x="1107.38" y="348.88" type="priority"/>
    <node id="49" x="1351.44" y="316.69" type="priority"/>
    <node id="49-end" x="157.75" y="231.25" type="dead_end"/>
    <node id="5" x="244.13" y="54.07" type="dead_end"/>
    <node id="50" x="1022.06" y="132.82" type="priority"/>
    <node id="51" x="1438.56" y="432.19" type="priority"/>
    <node id="52" x="977.75" y="829.69" type="traffic_light" tl="220" controlledInner="69 72[1]"/>
    <node id="53" x="768.63" y="816.34" type="traffic_light" tl="220" controlledInner="69 72[1]"/>
    <node id="54" x="552.06" y="565.57" type="priority"/>
    <node id="54-end" x="1750.25" y="936.57" type="dead_end"/>
    <node id="55-begin" x="1754.13" y="942.19" type="dead_end"/>
    <node id="55m" x="1496.87" y="1060.90" type="priority"/>
    <node id="56" x="469.75" y="586.69" type="priority"/>
    <node id="56m" x="417.15" y="519.44" type="priority"/>
    <node id="57" x="644.50" y="996.25" type="priority"/>
    <node id="59" x="886.06" y="627.53" type="priority"/>
    <node id="6" x="284.63" y="131.75" type="priority"/>
    <node id="60" x="922.94" y="633.94" type="priority"/>
    <node id="60-end" x="1397.75" y="92.00" type="dead_end"/>
    <node id="61" x="935.40" y="636.20" type="priority"/>
    <node id="62" x="966.81" y="642.88" type="priority"/>
    <node id="63" x="874.28" y="625.54" type="traffic_light" tl="209" controlledInner="187 188"/>
    <node id="64" x="1090.31" y="631.44" type="priority"/>
    <node id="65" x="1121.81" y="628.88" type="priority"/>
    <node id="66" x="1163.44" y="625.69" type="priority"/>
    <node id="68" x="1203.38" y="621.44" type="priority"/>
    <node id="7" x="392.38" y="115.94" type="priority"/>
    <node id="70" x="1285.06" y="612.63" type="priority"/>
    <node id="71" x="1316.44" y="608.50" type="priority"/>
    <node id="72" x="1351.06" y="604.44" type="priority"/>
    <node id="73" x="1386.00" y="600.50" type="priority"/>
    <node id="77-end" x="0.00" y="364.94" type="dead_end"/>
    <node id="78" x="1425.56" y="1082.94" type="traffic_light" tl="235" controlledInner="124 125"/>
    <node id="78-begin" x="3.31" y="360.69" type="dead_end"/>
    <node id="79" x="1174.31" y="827.32" type="priority"/>
    <node id="8" x="564.50" y="799.07" type="priority"/>
    <node id="81" x="852.00" y="919.94" type="priority"/>
    <node id="82" x="778.00" y="613.44" type="traffic_light" tl="209" controlledInner="187 188"/>
    <node id="84" x="565.88" y="568.34" type="priority"/>
    <node id="85" x="602.19" y="576.14" type="priority"/>
    <node id="85-begin" x="241.13" y="906.38" type="dead_end"/>
    <node id="86" x="564.00" y="387.08" type="priority"/>
    <node id="86-end" x="253.25" y="919.44" type="dead_end"/>
    <node id="87" x="985.56" y="876.38" type="priority"/>
    <node id="9" x="583.69" y="854.50" type="traffic_light" tl="219"/>
</nodes>
