<?xml version="1.0" ?><routes><vehicle arrivalPos="-1" depart="0" departLane="best" departPos="0" id="Audinot_7_0" type="private">
        <route edges="a131 a117 a209 "/>
    </vehicle><vehicle arrivalPos="-1" depart="0" departLane="best" departPos="0" id="Borgo_100_0" type="private">
        <route edges="b6 b100 b7 b3[1] b3[1]b "/>
    </vehicle><vehicle arrivalPos="-1" depart="0" departLane="best" departPos="0" id="Certosa_9_0" type="private">
        <route edges="b22[0] b22[1] b2[1][1][1] b2[1][1][1]b "/>
    </vehicle><vehicle arrivalPos="-1" depart="0" departLane="best" departPos="0" id="Costa_12_0" type="private">
        <route edges="a78[0] a56a a56b a77bc a77cd a53cd a53[0] a53[1][0] a79 a68 a11 b38[0] b38[0]a b46 b49[0] b49[1] b55 b53 b53a "/>
    </vehicle><vehicle arrivalPos="-1" depart="0" departLane="best" departPos="0" id="Gandhi_40_0" type="private">
        <route edges="b1[0] ba1[1] b1[1] b38[0] b38[0]a b46 b49[0] b49[1] b55 b53 b53a "/>
    </vehicle><vehicle arrivalPos="-1" depart="0" departLane="best" departPos="0" id="Malvasia_70_0" type="private">
        <route edges="b52 b51 b56[0] b39[0] b39[1][0] b39[1][1][0] b39[1][1][1] b45 a67 a80 a127 a77[1][0] a77[1][1] "/>
    </vehicle><vehicle arrivalPos="-1" depart="0" departLane="best" departPos="0" id="Pepoli_3_0" type="ignoring">
        <route edges="a210 a43[0] a118 a65 a57[0] a57[1] a62 a159 a42 a39 a35 a38 a15 a14 "/>
    </vehicle><vehicle arrivalPos="-1" depart="0" departLane="best" departPos="0" id="Pertini_20_0" type="private">
        <route edges="b63[0] b63[1] b4[0] b4[1][1][0] b4[1][1][1] "/>
    </vehicle><vehicle arrivalPos="-1" depart="0" departLane="best" departPos="0" id="Prati_Capraia_10_0" type="private">
        <route edges="b3[0] b10 "/>
    </vehicle><vehicle arrivalPos="-1" depart="0" departLane="best" departPos="0" id="Silvani_11_0" type="private">
        <route edges="a203[0] b12 b56[0] b56[1][0] b56[1][1] b5[1][0]+66 b5[1][1][1] b16[0] b16[1] b18 b20+19b b2[1][1][1]b "/>
    </vehicle><vehicle arrivalPos="-1" depart="0" departLane="best" departPos="0" id="Turati_10_0" type="private">
        <route edges="a195 a61 a58[0] a58[1] a66 a119 a116 a46 a201 a201c a204a[0] a204b[0] a204[1][0] a204[1][1] "/>
    </vehicle><vehicle arrivalPos="-1" depart="0" departLane="best" departPos="0" id="XXI_Aprile_7_0" type="private">
        <route edges="a8 a9 a211 a45 a206 a32 a40 a41 a160 a61 a58[0] a58[1] a66 a117 a209 "/>
    </vehicle><vehicle arrivalPos="-1" depart="1" departLane="best" departPos="0" id="Gandhi_50_1" type="ignoring">
        <route edges="b1[0] b25 b23 b17[0] b17[1] b11[0] b11[1][1] b101 b35[0] b35[1][0] b35[1][1][0] b20000+35[1][1][1][0] b35[1][1][1][1] "/>
    </vehicle><vehicle arrivalPos="-1" depart="1" departLane="best" departPos="0" id="Pepoli_9_1" type="private">
        <route edges="a210 a43[0] a43[1] a201 a201c a204a[0] a204b[0] a54 "/>
    </vehicle><vehicle arrivalPos="-1" depart="2" departLane="best" departPos="0" id="Costa_12_1" type="private">
        <route edges="a78[0] a56a a56b a77bc a77cd a53cd a53[0] a53[1][0] a79 a68 a11 b38[0] b38[0]a b46 b49[0] b49[1] b55 b53 b53a "/>
    </vehicle><vehicle arrivalPos="-1" depart="2" departLane="best" departPos="0" id="Pertini_20_1" type="private">
        <route edges="b63[0] b63[1] b4[0] b4[1][1][0] b4[1][1][1] "/>
    </vehicle><vehicle arrivalPos="-1" depart="2" departLane="best" departPos="0" id="Silvani_11_1" type="private">
        <route edges="a203[0] b12 b56[0] b56[1][0] b56[1][1] b5[1][0]+66 b5[1][1][1] b8 b3[1] b3[1]b "/>
    </vehicle><vehicle arrivalPos="-1" depart="3" departLane="best" departPos="0" id="Gandhi_60_2" type="private">
        <route edges="b1[0] ba1[1] b1[1] a72[0] a72[1] a69 a161 a122 a1b a1 a204a[0] a204b[0] a204[1][0] a204[1][1] "/>
    </vehicle><vehicle arrivalPos="-1" depart="3" departLane="best" departPos="0" id="Pepoli_3_2" type="ignoring">
        <route edges="a210 a43[0] a118 a65 a57[0] a57[1] a62 a159 a42 a39 a35 a38 a15 a14  "/>
    </vehicle><vehicle arrivalPos="-1" depart="4" departLane="best" departPos="0" id="Gandhi_30_3" type="private">
        <route edges="b1[0] b25 b23 b17[0] b17[1] b11[0] b11[1][1] b70 "/>
    </vehicle><vehicle arrivalPos="-1" depart="4" departLane="best" departPos="0" id="Malvasia_70_1" type="private">
        <route edges="b52 b51 b56[0] b39[0] b39[1][0] b39[1][1][0] b39[1][1][1] b45 a67 a80 a127 a77[1][0] a77ab a77bc a21a a21b a103 a14  "/>
    </vehicle><vehicle arrivalPos="-1" depart="4" departLane="best" departPos="0" id="Pertini_20_2" type="private">
        <route edges="b63[0] b63[1] b4[0] b4[1][1][0] b4[1][1][1] "/>
    </vehicle><vehicle arrivalPos="-1" depart="4" departLane="best" departPos="0" id="Prati_Capraia_10_1" type="private">
        <route edges="b3[0] b10 "/>
    </vehicle><vehicle arrivalPos="-1" depart="4" departLane="best" departPos="0" id="Silvani_7_2" type="private">
        <route edges="a203[0] a203[1] a203[1]b a202 a34 a113 a209 "/>
    </vehicle><vehicle arrivalPos="-1" depart="5" departLane="best" departPos="0" id="Costa_1_2" type="private">
        <route edges="a78[0] a56a a56b a77bc a77cd a53cd a53[0] a53[1][0] a79 a68 a11 b2[0] b2[1][0] b2[1][1][0] b2[1][1][1] b2[1][1][1]b "/>
    </vehicle><vehicle arrivalPos="-1" depart="5" departLane="best" departPos="0" id="Pepoli_11_3" type="private">
        <route edges="a210 a43[0] a43[1] a201 a201c a204a[0] a124 b12 b56[0] b56[1][0] b56[1][1] b5[1][0]+66 b5[1][1][1] b8 b10 "/>
    </vehicle><vehicle arrivalPos="-1" depart="6" departLane="best" departPos="0" id="Pepoli_10_4" type="private">
        <route edges="a210 a43[0] a43[1] a201 a201c a204a[0] a204b[0] a204[1][0] a204[1][1] "/>
    </vehicle><vehicle arrivalPos="-1" depart="6" departLane="best" departPos="0" id="Pertini_22_3" type="private">
        <route edges="b13[0] b14 b17[0] b17[1] b8 b4[1][1][1] "/>
    </vehicle><vehicle arrivalPos="-1" depart="7" departLane="best" departPos="0" id="Costa_12_3" type="private">
        <route edges="a78[0] a56a a56b a77bc a77cd a53cd a53[0] a53[1][0] a79 a68 a11 b38[0] b38[0]a b46 b49[0] b49[1] b55 b53 b53a "/>
    </vehicle><vehicle arrivalPos="-1" depart="7" departLane="best" departPos="0" id="Gandhi_52_5" type="ignoring">
        <route edges="b1[0] b25 b23 b17[0] b30 b31 b11[1][1] b101 b35[0] b35[1][0] b35[1][1][0] b20000+35[1][1][1][0] b35[1][1][1][1] "/>
    </vehicle><vehicle arrivalPos="-1" depart="7" departLane="best" departPos="0" id="Silvani_7_3" type="private">
        <route edges="a203[0] a203[1] a203[1]b a202 a34 a113 a209 "/>
    </vehicle><vehicle arrivalPos="-1" depart="7" departLane="best" departPos="0" id="XXI_Aprile_94_2" type="private">
        <route edges="a8 a13 a104 a24 a22 a59 a53cd a53[0] a78[1][1] a189[0] a189[1][0]+20000 a189[1][1] a188 a87[0] a20001+87[1][0] a87[1][1] am90 a171 a161 a122 a1b a1 a204a[0] a204b[0] a54 "/>
    </vehicle><vehicle arrivalPos="-1" depart="8" departLane="best" departPos="0" id="Pepoli_11_5" type="private">
        <route edges="a210 a43[0] a43[1] a201 a201c a204a[0] a124 b12 b56[0] b39[0] b39[1][0] b39[1][1][0] b39[1][1][1] b45 a67 a80 a127 a77[1][0] a77[1][1] "/>
    </vehicle><vehicle arrivalPos="-1" depart="8" departLane="best" departPos="0" id="Pertini_23_4" type="private">
        <route edges="b13[0] b14 b17[0] b29[0] b29[1] b4[1][1][0] b4[1][1][1] "/>
    </vehicle><vehicle arrivalPos="-1" depart="9" departLane="best" departPos="0" id="Gandhi_60_6" type="private">
        <route edges="b1[0] ba1[1] b1[1] a72[0] a72[1] a69 a161 a122 a1b a1 a204a[0] a124 b12 b56[0] b56[1][0] b56[1][1] b70 "/>
    </vehicle><vehicle arrivalPos="-1" depart="9" departLane="best" departPos="0" id="Malvasia_100_2" type="private">
        <route edges="b52 b51 b56[0] b56[1][0] b56[1][1] b5[1][0]+66 b5[1][1][1] b8 b3[1] b3[1]b "/>
    </vehicle><vehicle arrivalPos="-1" depart="9" departLane="best" departPos="0" id="Prati_Capraia_100_2" type="private">
        <route edges="b3[0] b3[1] b3[1]b "/>
    </vehicle><vehicle arrivalPos="-1" depart="9" departLane="best" departPos="0" id="Silvani_7_4" type="private">
        <route edges="a203[0] a203[1] a203[1]b a202 a34 a113 a209 "/>
    </vehicle><vehicle arrivalPos="-1" depart="10" departLane="best" departPos="0" id="Costa_1_4" type="private">
        <route edges="a78[0] a56a a56b a77bc a77cd a53cd a53[0] a53[1][0] a79 a68 a11 b2[0] b2[1][0] b2[1][1][0] b2[1][1][1] b2[1][1][1]b "/>
    </vehicle><vehicle arrivalPos="-1" depart="10" departLane="best" departPos="0" id="Gandhi_60_7" type="private">
        <route edges="b1[0] ba1[1] b1[1] a72[0] a72[1] a69 a161 a122 a1b a1 a204a[0] a204b[0] a204[1][0] a204[1][1] "/>
    </vehicle><vehicle arrivalPos="-1" depart="10" departLane="best" departPos="0" id="Pepoli_11_6" type="private">
        <route edges="a210 a43[0] a43[1] a201 a201c a204a[0] a124 b12 b56[0] b39[0] b39[1][0] b39[1][1][0] b39[1][1][1] b45 a67 a80 a127 a77[1][0] a77[1][1] "/>
    </vehicle><vehicle arrivalPos="-1" depart="10" departLane="best" departPos="0" id="Pertini_62_5" type="private">
        <route edges="b63[0] b63[1] b4[0] b28 b28a b16[1] b18 b20+19a ba1[1] b1[1] a72[0] a72[1] a69 a161 a122 a1b a1 a204a[0] a204b[0] a204[1][0] a204[1][1] "/>
    </vehicle><vehicle arrivalPos="-1" depart="11" departLane="best" departPos="0" id="Silvani_7_5" type="private">
        <route edges="a203[0] a203[1] a203[1]b a202 a34 a113 a209 "/>
    </vehicle><vehicle arrivalPos="-1" depart="12" departLane="best" departPos="0" id="Borgo_100_2" type="private">
        <route edges="b6 b100 b7 b3[1] b3[1]b "/>
    </vehicle><vehicle arrivalPos="-1" depart="12" departLane="best" departPos="0" id="Gandhi_60_8" type="private">
        <route edges="b1[0] ba1[1] b1[1] a72[0] a72[1] a69 a161 a122 a3 a2 a202 a34 a113 a209 "/>
    </vehicle><vehicle arrivalPos="-1" depart="12" departLane="best" departPos="0" id="Pepoli_11_7" type="private">
        <route edges="a210 a43[0] a43[1] a201 a201c a204a[0] a124 b12 b56[0] b56[1][0] b56[1][1] b70 "/>
    </vehicle><vehicle arrivalPos="-1" depart="12" departLane="best" departPos="0" id="Pertini_60_6" type="private">
        <route edges="b13[0] b14 b18 b20+19a ba1[1] b1[1] a72[0] a72[1] a69 a161 a122 a3 a2 a202 a34 a113 a209 "/>
    </vehicle><vehicle arrivalPos="-1" depart="13" departLane="best" departPos="0" id="Pepoli_11_8" type="private">
        <route edges="a210 a43[0] a43[1] a201 a201c a204a[0] a124 b12 b56[0] b56[1][0] b56[1][1] b5[1][0]+66 b5[1][1][1] b8 b10 "/>
    </vehicle><vehicle arrivalPos="-1" depart="14" departLane="best" departPos="0" id="Malvasia_100_3" type="private">
        <route edges="b52 b51 b56[0] b56[1][0] b56[1][1] b5[1][0]+66 b5[1][1][1] b8 b3[1] b3[1]b "/>
    </vehicle><vehicle arrivalPos="-1" depart="14" departLane="best" departPos="0" id="Prati_Capraia_100_3" type="private">
        <route edges="b3[0] b3[1] b3[1]b "/>
    </vehicle><vehicle arrivalPos="-1" depart="14" departLane="best" departPos="0" id="Silvani_3_6" type="ignoring">
        <route edges="a203[0] a203[1] a203[1]b a202 a34 a113 a118 a65 a57[0] a57[1] a62 a159 a42 a39 a35 a38 a15 a14  "/>
    </vehicle><vehicle arrivalPos="-1" depart="14" departLane="best" departPos="0" id="XXI_Aprile_113_4" type="private">
        <route edges="a8 a13 a104 a24 a22 a59 a53cd a53[0] a53[1][0] a79 a74 a72[1] a69 a161 a122 a1b a1 a204a[0] a124 b12 b53 b53a "/>
    </vehicle><vehicle arrivalPos="-1" depart="15" departLane="best" departPos="0" id="Costa_50_6" type="private">
        <route edges="a78[0] a56a am1 a21b a103 a16 a37 a36 a40 a41 a160 a61 a58[0] a58[1] a200 a60 "/>
    </vehicle><vehicle arrivalPos="-1" depart="15" departLane="best" departPos="0" id="Gandhi_50_10" type="ignoring">
        <route edges="b1[0] b25 b23 b17[0] b17[1] b11[0] b11[1][1] b101 b35[0] b35[1][0] b35[1][1][0] b20000+35[1][1][1][0] b35[1][1][1][1] "/>
    </vehicle><vehicle arrivalPos="-1" depart="15" departLane="best" departPos="0" id="Pepoli_11_9" type="private">
        <route edges="a210 a43[0] a43[1] a201 a201c a204a[0] a124 b12 b56[0] b56[1][0] b56[1][1] b70 "/>
    </vehicle><vehicle arrivalPos="-1" depart="15" departLane="best" departPos="0" id="Pertini_20_7" type="private">
        <route edges="b63[0] b63[1] b4[0] b4[1][1][0] b4[1][1][1] "/>
    </vehicle><vehicle arrivalPos="-1" depart="16" departLane="best" departPos="0" id="Silvani_7_7" type="private">
        <route edges="a203[0] a203[1] a203[1]b a202 a34 a113 a209 "/>
    </vehicle><vehicle arrivalPos="-1" depart="17" departLane="best" departPos="0" id="Gandhi_80_11" type="private">
        <route edges="b1[0] b21 "/>
    </vehicle><vehicle arrivalPos="-1" depart="17" departLane="best" departPos="0" id="Pepoli_10_10" type="private">
        <route edges="a210 a43[0] a43[1] a201 a201c a204a[0] a204b[0] a204[1][0] a204[1][1] "/>
    </vehicle><vehicle arrivalPos="-1" depart="17" departLane="best" departPos="0" id="Pertini_30_8" type="private">
        <route edges="b13[0] b14 b17[0] b30 b31 b11[1][1] b70 "/>
    </vehicle><vehicle arrivalPos="-1" depart="17" departLane="best" departPos="0" id="XXI_Aprile_104_5" type="private">
        <route edges="a8 a13 a104 a24 a22 a59 a53cd a53[0] a78[1][1] a189[0] a189[1][0]+20000 a189[1][1] a188 a87[0] a20001+87[1][0] a87[1][1] am90 a171 a161 a122 a1b a1 a204a[0] a204b[0] a204[1][0] a204[1][1] "/>
    </vehicle><vehicle arrivalPos="-1" depart="18" departLane="best" departPos="0" id="Borgo_20_3" type="private">
        <route edges="b6 b100 b7 b4[1][1][1] "/>
    </vehicle><vehicle arrivalPos="-1" depart="18" departLane="best" departPos="0" id="Costa_12_7" type="private">
        <route edges="a78[0] a56a a56b a77bc a77cd a53cd a53[0] a53[1][0] a79 a68 a11 b38[0] b38[0]a b38[1][0] b38[1][1] b38[1][1]a b56[1][0] b34[0] b34[1][0] b26 b26.-170 b18 b20+19b b2[1][1][1]b "/>
    </vehicle><vehicle arrivalPos="-1" depart="18" departLane="best" departPos="0" id="Pepoli_10_11" type="private">
        <route edges="a210 a43[0] a43[1] a201 a201c a204a[0] a204b[0] a204[1][0] a204[1][1] "/>
    </vehicle><vehicle arrivalPos="-1" depart="18" departLane="best" departPos="0" id="Silvani_11_8" type="private">
        <route edges="a203[0] b12 b56[0] b56[1][0] b56[1][1] b5[1][0]+66 b5[1][1][1] b8 b3[1] b3[1]b "/>
    </vehicle><vehicle arrivalPos="-1" depart="19" departLane="best" departPos="0" id="Malvasia_92_4" type="private">
        <route edges="b52 b51 b56[0] b56[1][0] b34[0] b34[1][0] b34[1][1] b2[1][0] b2[1][1][0] b2[1][1][1] b2[1][1][1]b "/>
    </vehicle><vehicle arrivalPos="-1" depart="19" departLane="best" departPos="0" id="Pertini_20_9" type="private">
        <route edges="b63[0] b63[1] b4[0] b4[1][1][0] b4[1][1][1] "/>
    </vehicle><vehicle arrivalPos="-1" depart="19" departLane="best" departPos="0" id="Prati_Capraia_100_4" type="private">
        <route edges="b3[0] b3[1] b3[1]b "/>
    </vehicle><vehicle arrivalPos="-1" depart="20" departLane="best" departPos="0" id="Costa_50_8" type="private">
        <route edges="a78[0] a56a am1 a21b a103 a16 a37 a36 a40 a41 a160 a61 a58[0] a58[1] a200 a60 "/>
    </vehicle><vehicle arrivalPos="-1" depart="20" departLane="best" departPos="0" id="Gandhi_40_13" type="private">
        <route edges="b1[0] ba1[1] b1[1] b38[0] b38[0]a b46 b49[0] b49[1] b55 b53 b53a "/>
    </vehicle><vehicle arrivalPos="-1" depart="20" departLane="best" departPos="0" id="Pepoli_3_12" type="ignoring">
        <route edges="a210 a43[0] a118 a65 a57[0] a57[1] a62 a159 a42 a39 a35 a38 a15 a14  "/>
    </vehicle><vehicle arrivalPos="-1" depart="21" departLane="best" departPos="0" id="Pertini_20_10" type="private">
        <route edges="b63[0] b63[1] b4[0] b4[1][1][0] b4[1][1][1] "/>
    </vehicle><vehicle arrivalPos="-1" depart="21" departLane="best" departPos="0" id="Silvani_11_9" type="private">
        <route edges="a203[0] b12 b56[0] b56[1][0] b56[1][1] b5[1][0]+66 b5[1][1][1] b16[0] b29[0] "/>
    </vehicle><vehicle arrivalPos="-1" depart="21" departLane="best" departPos="0" id="XXI_Aprile_12_6" type="private">
        <route edges="a8 a13 a104 a24 a22 a59 a53cd a53[0] a53[1][0] a79 a68 a11 b38[0] b38[0]a b46 b49[0] b49[1] b55 b53 b53a "/>
    </vehicle><vehicle arrivalPos="-1" depart="23" departLane="best" departPos="0" id="Costa_12_9" type="private">
        <route edges="a78[0] a56a a56b a77bc a77cd a53cd a53[0] a53[1][0] a79 a68 a11 b38[0] b38[0]a b38[1][0] b38[1][1] b38[1][1]a b56[1][0] b56[1][1] b5[1][0]+66 b5[1][1][1] b8 b4[1][1][1] "/>
    </vehicle><vehicle arrivalPos="-1" depart="23" departLane="best" departPos="0" id="Gandhi_60_15" type="private">
        <route edges="b1[0] ba1[1] b1[1] a72[0] a72[1] a69 a161 a122 a1b a1 a204a[0] a204b[0] a204[1][0] a204[1][1] "/>
    </vehicle><vehicle arrivalPos="-1" depart="23" departLane="best" departPos="0" id="Pertini_20_11" type="private">
        <route edges="b63[0] b63[1] b4[0] b4[1][1][0] b4[1][1][1] "/>
    </vehicle><vehicle arrivalPos="-1" depart="23" departLane="best" departPos="0" id="Silvani_7_10" type="private">
        <route edges="a203[0] a203[1] a203[1]b a202 a34 a113 a209 "/>
    </vehicle><vehicle arrivalPos="-1" depart="24" departLane="best" departPos="0" id="Borgo_20_4" type="private">
        <route edges="b6 b100 b7 b4[1][1][1] "/>
    </vehicle><vehicle arrivalPos="-1" depart="24" departLane="best" departPos="0" id="Malvasia_100_5" type="private">
        <route edges="b52 b51 b56[0] b56[1][0] b56[1][1] b5[1][0]+66 b5[1][1][1] b8 b3[1] b3[1]b "/>
    </vehicle><vehicle arrivalPos="-1" depart="24" departLane="best" departPos="0" id="Pepoli_3_14" type="ignoring">
        <route edges="a210 a43[0] a118 a65 a57[0] a57[1] a62 a159 a42 a39 a35 a38 a15 a14  "/>
    </vehicle><vehicle arrivalPos="-1" depart="24" departLane="best" departPos="0" id="Prati_Capraia_100_5" type="private">
        <route edges="b3[0] b3[1] b3[1]b "/>
    </vehicle><vehicle arrivalPos="-1" depart="24" departLane="best" departPos="0" id="XXI_Aprile_7_7" type="private">
        <route edges="a8 a9 a211 a45 a206 a32 a40 a41 a160 a61 a58[0] a58[1] a66 a117 a209 "/>
    </vehicle><vehicle arrivalPos="-1" depart="25" departLane="best" departPos="0" id="Gandhi_60_16" type="private">
        <route edges="b1[0] ba1[1] b1[1] a72[0] a72[1] a69 a161 a122 a1b a1 a204a[0] a204b[0] a204[1][0] a204[1][1] "/>
    </vehicle><vehicle arrivalPos="-1" depart="25" departLane="best" departPos="0" id="Pepoli_11_15" type="private">
        <route edges="a210 a43[0] a43[1] a201 a201c a204a[0] a124 b12 b53 b53a "/>
    </vehicle><vehicle arrivalPos="-1" depart="25" departLane="best" departPos="0" id="Pertini_20_12" type="private">
        <route edges="b63[0] b63[1] b4[0] b4[1][1][0] b4[1][1][1] "/>
    </vehicle><vehicle arrivalPos="-1" depart="25" departLane="best" departPos="0" id="Silvani_7_11" type="private">
        <route edges="a203[0] a203[1] a203[1]b a202 a34 a113 a209 "/>
    </vehicle><vehicle arrivalPos="-1" depart="26" departLane="best" departPos="0" id="Costa_91_10" type="private">
        <route edges="a78[0] a56a a56b a77bc a77cd a53cd a53[0] a78[1][1] a189[0] a189[1][0]+20000 a189[1][1] a188 a87[0] a20001+87[1][0] a87[1][1] am90 a89[0] a20002+89[1][0] a89[1][1] a91 a186 a109[0] a109[1][0]+20003 a109[1][1] a116 a46 a201 a201c a204a[0] a204b[0] a54 "/>
    </vehicle><vehicle arrivalPos="-1" depart="27" departLane="best" departPos="0" id="Pepoli_8_16" type="private">
        <route edges="a210 a43[0] a43[1] a134 a134b "/>
    </vehicle><vehicle arrivalPos="-1" depart="27" departLane="best" departPos="0" id="Pertini_22_13" type="private">
        <route edges="b13[0] b14 b17[0] b17[1] b8 b4[1][1][1] "/>
    </vehicle><vehicle arrivalPos="-1" depart="28" departLane="best" departPos="0" id="Costa_12_11" type="private">
        <route edges="a78[0] a56a a56b a77bc a77cd a53cd a53[0] a53[1][0] a79 a68 a11 b38[0] b38[0]a b38[1][0] b38[1][1] b38[1][1]a b56[1][0] b56[1][1] b5[1][0]+66 b5[1][1][1] b8 b4[1][1][1] "/>
    </vehicle><vehicle arrivalPos="-1" depart="28" departLane="best" departPos="0" id="Gandhi_60_18" type="private">
        <route edges="b1[0] ba1[1] b1[1] a72[0] a72[1] a69 a161 a122 a1b a1 a204a[0] a204b[0] a204[1][0] a204[1][1] "/>
    </vehicle><vehicle arrivalPos="-1" depart="28" departLane="best" departPos="0" id="Silvani_11_12" type="private">
        <route edges="a203[0] b12 b56[0] b39[0] b39[1][0] b39[1][1][0] b39[1][1][1] b45 a67 a80 a127 a77[1][0] a77ab a77bc a21a a21b a103 a14  "/>
    </vehicle><vehicle arrivalPos="-1" depart="29" departLane="best" departPos="0" id="Malvasia_10_6" type="private">
        <route edges="b52 b51 b56[0] b56[1][0] b56[1][1] b5[1][0]+66 b5[1][1][1] b8 b10 "/>
    </vehicle><vehicle arrivalPos="-1" depart="29" departLane="best" departPos="0" id="Pepoli_11_17" type="private">
        <route edges="a210 a43[0] a43[1] a201 a201c a204a[0] a124 b12 b56[0] b39[0] b39[1][0] b39[1][1][0] b39[1][1][1] b45 a67 a80 a127 a77[1][0] a77[1][1] "/>
    </vehicle><vehicle arrivalPos="-1" depart="29" departLane="best" departPos="0" id="Prati_Capraia_30_6" type="ignoring">
        <route edges="b3[0] b9 b11[0] b11[1][1] b70 "/>
    </vehicle><vehicle arrivalPos="-1" depart="30" departLane="best" departPos="0" id="Borgo_40_5" type="ignoring">
        <route edges="b6 b100 b7 b9 b11[0] b11[1][1] b101 b34[0] b34[1][0] b36 b46 b49[0] b49[1] b55 b53 b53a "/>
    </vehicle><vehicle arrivalPos="-1" depart="30" departLane="best" departPos="0" id="Pepoli_10_18" type="private">
        <route edges="a210 a43[0] a43[1] a201 a201c a204a[0] a204b[0] a204[1][0] a204[1][1] "/>
    </vehicle><vehicle arrivalPos="-1" depart="30" departLane="best" departPos="0" id="Pertini_20_14" type="private">
        <route edges="b63[0] b63[1] b4[0] b4[1][1][0] b4[1][1][1] "/>
    </vehicle><vehicle arrivalPos="-1" depart="30" departLane="best" departPos="0" id="Silvani_11_13" type="private">
        <route edges="a203[0] b12 b56[0] b56[1][0] b56[1][1] b70 "/>
    </vehicle><vehicle arrivalPos="-1" depart="32" departLane="best" departPos="0" id="Gandhi_42_21" type="ignoring">
        <route edges="b1[0] b25 b23 b27 b36 b46 b49[0] b49[1] b55 b53 b53a "/>
    </vehicle><vehicle arrivalPos="-1" depart="32" departLane="best" departPos="0" id="Pepoli_10_19" type="private">
        <route edges="a210 a43[0] a43[1] a201 a201c a204a[0] a204b[0] a204[1][0] a204[1][1] "/>
    </vehicle><vehicle arrivalPos="-1" depart="32" departLane="best" departPos="0" id="Pertini_20_15" type="private">
        <route edges="b63[0] b63[1] b4[0] b4[1][1][0] b4[1][1][1] "/>
    </vehicle><vehicle arrivalPos="-1" depart="33" departLane="best" departPos="0" id="Silvani_11_14" type="private">
        <route edges="a203[0] b12 b56[0] b56[1][0] b56[1][1] b70 "/>
    </vehicle><vehicle arrivalPos="-1" depart="34" departLane="best" departPos="0" id="Gandhi_60_22" type="private">
        <route edges="b1[0] ba1[1] b1[1] a72[0] a72[1] a69 a161 a122 a1b a1 a204a[0] a124 b12 b56[0] b39[0] b39[1][0] b39[1][1][0] b39[1][1][1] b45 b2[0] b2[1][0] b2[1][1][0] b2[1][1][1] b2[1][1][1]b "/>
    </vehicle><vehicle arrivalPos="-1" depart="34" departLane="best" departPos="0" id="Malvasia_100_7" type="private">
        <route edges="b52 b51 b56[0] b56[1][0] b56[1][1] b5[1][0]+66 b5[1][1][1] b8 b3[1] b3[1]b "/>
    </vehicle><vehicle arrivalPos="-1" depart="34" departLane="best" departPos="0" id="Pepoli_10_20" type="private">
        <route edges="a210 a43[0] a43[1] a201 a201c a204a[0] a204b[0] a204[1][0] a204[1][1] "/>
    </vehicle><vehicle arrivalPos="-1" depart="34" departLane="best" departPos="0" id="Pertini_20_16" type="private">
        <route edges="b63[0] b63[1] b4[0] b4[1][1][0] b4[1][1][1] "/>
    </vehicle><vehicle arrivalPos="-1" depart="34" departLane="best" departPos="0" id="Prati_Capraia_10_7" type="private">
        <route edges="b3[0] b10 "/>
    </vehicle><vehicle arrivalPos="-1" depart="34" departLane="best" departPos="0" id="Turati_10_1" type="private">
        <route edges="a195 a61 a58[0] a58[1] a66 a119 a116 a46 a201 a201c a204a[0] a204b[0] a204[1][0] a204[1][1] "/>
    </vehicle><vehicle arrivalPos="-1" depart="35" departLane="best" departPos="0" id="Gandhi_40_23" type="private">
        <route edges="b1[0] ba1[1] b1[1] b38[0] b38[0]a b46 b49[0] b49[1] b55 b53 b53a "/>
    </vehicle><vehicle arrivalPos="-1" depart="35" departLane="best" departPos="0" id="Silvani_7_15" type="private">
        <route edges="a203[0] a203[1] a203[1]b a202 a34 a113 a209 "/>
    </vehicle><vehicle arrivalPos="-1" depart="35" departLane="best" departPos="0" id="XXI_Aprile_12_10" type="private">
        <route edges="a8 a13 a104 a24 a22 a59 a53cd a53[0] a53[1][0] a79 a68 a11 b38[0] b38[0]a b38[1][0] b38[1][1] b38[1][1]a b56[1][0] b56[1][1] b70 "/>
    </vehicle><vehicle arrivalPos="-1" depart="36" departLane="best" departPos="0" id="Borgo_20_6" type="private">
        <route edges="b6 b100 b7 b4[1][1][1] "/>
    </vehicle><vehicle arrivalPos="-1" depart="36" departLane="best" departPos="0" id="Certosa_6_1" type="private">
        <route edges="b22[0] b22[1] ba1[1] b1[1] a72[0] a72[1] a69 a161 a122 a3 a2 a202 a34 a113 a209 "/>
    </vehicle><vehicle arrivalPos="-1" depart="36" departLane="best" departPos="0" id="Costa_12_14" type="private">
        <route edges="a78[0] a56a a56b a77bc a77cd a53cd a53[0] a53[1][0] a79 a68 a11 b38[0] b38[0]a b46 b49[0] b49[1] b55 b53 b53a "/>
    </vehicle><vehicle arrivalPos="-1" depart="36" departLane="best" departPos="0" id="Pepoli_8_21" type="private">
        <route edges="a210 a43[0] a43[1] a134 a134b "/>
    </vehicle><vehicle arrivalPos="-1" depart="36" departLane="best" departPos="0" id="Pertini_20_17" type="private">
        <route edges="b63[0] b63[1] b4[0] b4[1][1][0] b4[1][1][1] "/>
    </vehicle><vehicle arrivalPos="-1" depart="37" departLane="best" departPos="0" id="Gandhi_60_24" type="private">
        <route edges="b1[0] ba1[1] b1[1] a72[0] a72[1] a69 a161 a122 a1b a1 a204a[0] a204b[0] a204[1][0] a204[1][1] "/>
    </vehicle><vehicle arrivalPos="-1" depart="37" departLane="best" departPos="0" id="Nigrisoli_50_6" type="ignoring">
        <route edges="b65 b101 b35[0] b35[1][0] b35[1][1][0] b20000+35[1][1][1][0] b35[1][1][1][1] "/>
    </vehicle><vehicle arrivalPos="-1" depart="37" departLane="best" departPos="0" id="Pepoli_10_22" type="private">
        <route edges="a210 a43[0] a43[1] a201 a201c a204a[0] a204b[0] a204[1][0] a204[1][1] "/>
    </vehicle><vehicle arrivalPos="-1" depart="37" departLane="best" departPos="0" id="Silvani_11_16" type="private">
        <route edges="a203[0] b12 b56[0] b39[0] b39[1][0] b39[1][1][0] b39[1][1][1] b45 b2[0] b2[1][0] b2[1][1][0] b2[1][1][1] b2[1][1][1]b "/>
    </vehicle><vehicle arrivalPos="-1" depart="38" departLane="best" departPos="0" id="Malvasia_94_8" type="private">
        <route edges="b52 b51 b50[0] b97 b39[1][0] b39[1][1][0] b39[1][1][1] b45 b2[0] b2[1][0] b2[1][1][0] b2[1][1][1] b2[1][1][1]b "/>
    </vehicle><vehicle arrivalPos="-1" depart="38" departLane="best" departPos="0" id="Pertini_20_18" type="private">
        <route edges="b63[0] b63[1] b4[0] b4[1][1][0] b4[1][1][1] "/>
    </vehicle><vehicle arrivalPos="-1" depart="38" departLane="best" departPos="0" id="Prati_Capraia_100_8" type="private">
        <route edges="b3[0] b3[1] b3[1]b "/>
    </vehicle><vehicle arrivalPos="-1" depart="39" departLane="best" departPos="0" id="Costa_1_15" type="private">
        <route edges="a78[0] a56a a56b a77bc a77cd a53cd a53[0] a53[1][0] a79 a68 a11 b2[0] b2[1][0] b2[1][1][0] b2[1][1][1] b2[1][1][1]b "/>
    </vehicle><vehicle arrivalPos="-1" depart="39" departLane="best" departPos="0" id="Pepoli_8_23" type="private">
        <route edges="a210 a43[0] a43[1] a134 a134b "/>
    </vehicle><vehicle arrivalPos="-1" depart="39" departLane="best" departPos="0" id="XXI_Aprile_12_11" type="private">
        <route edges="a8 a13 a104 a24 a22 a59 a53cd a53[0] a53[1][0] a79 a68 a11 b38[0] b38[0]a b46 b49[0] b49[1] b55 b53 b53a "/>
    </vehicle><vehicle arrivalPos="-1" depart="40" departLane="best" departPos="0" id="Gandhi_40_26" type="private">
        <route edges="b1[0] ba1[1] b1[1] b38[0] b38[0]a b46 b49[0] b49[1] b55 b53 b53a "/>
    </vehicle><vehicle arrivalPos="-1" depart="40" departLane="best" departPos="0" id="Pertini_20_19" type="private">
        <route edges="b63[0] b63[1] b4[0] b4[1][1][0] b4[1][1][1] "/>
    </vehicle><vehicle arrivalPos="-1" depart="40" departLane="best" departPos="0" id="Silvani_11_17" type="private">
        <route edges="a203[0] b12 b56[0] b56[1][0] b56[1][1] b5[1][0]+66 b5[1][1][1] b16[0] b16[1] b18 b20+19b b2[1][1][1]b "/>
    </vehicle><vehicle arrivalPos="-1" depart="41" departLane="best" departPos="0" id="Pepoli_11_24" type="private">
        <route edges="a210 a43[0] a43[1] a201 a201c a204a[0] a124 b12 b56[0] b56[1][0] b56[1][1] b5[1][0]+66 b5[1][1][1] b16[0] b29[0] "/>
    </vehicle><vehicle arrivalPos="-1" depart="42" departLane="best" departPos="0" id="Audinot_10_2" type="private">
        <route edges="a131 a119 a116 a46 a201 a201c a204a[0] a204b[0] a204[1][0] a204[1][1] "/>
    </vehicle><vehicle arrivalPos="-1" depart="42" departLane="best" departPos="0" id="Borgo_20_7" type="private">
        <route edges="b6 b100 b7 b4[1][1][1] "/>
    </vehicle><vehicle arrivalPos="-1" depart="42" departLane="best" departPos="0" id="Pepoli_8_25" type="private">
        <route edges="a210 a43[0] a43[1] a134 a134b "/>
    </vehicle><vehicle arrivalPos="-1" depart="42" departLane="best" departPos="0" id="Silvani_7_18" type="private">
        <route edges="a203[0] a203[1] a203[1]b a202 a34 a113 a209 "/>
    </vehicle><vehicle arrivalPos="-1" depart="42" departLane="best" departPos="0" id="XXI_Aprile_2_12" type="private">
        <route edges="a8 a13 a104 a24 a22 a59 a53cd a53[0] a53[1][0] a53[1][1][0] a77[1][0] a77[1][1] "/>
    </vehicle><vehicle arrivalPos="-1" depart="43" departLane="best" departPos="0" id="Gandhi_60_28" type="private">
        <route edges="b1[0] ba1[1] b1[1] a72[0] a72[1] a69 a161 a122 a3 a2 a202 a34 a134 a134b "/>