<?xml version="1.0" encoding="UTF-8"?>

<!-- generated on 2025-03-25 18:54:59 by Eclipse SUMO netedit Version 1.20.0
<configuration xmlns:xsi="http://www.w3.org/2001/XMLSchema-instance" xsi:noNamespaceSchemaLocation="http://sumo.dlr.de/xsd/neteditConfiguration.xsd">

    <input>
        <sumocfg-file value="/Users/instafiore/Git/tplp-traffic/maps/MapTests/config_file.sumocfg"/>
        <additional-files value=""/>
        <route-files value="/Users/instafiore/Git/tplp-traffic/maps/MapTests/routes.rou.xml"/>
        <sumo-net-file value="/Users/instafiore/Git/tplp-traffic/maps/MapTests/pollution_test.net.xml"/>
    </input>

    <output>
        <output-file value="/Users/instafiore/Git/tplp-traffic/maps/MapTests/pollution_test.net.xml"/>
    </output>

    <processing>
        <geometry.min-radius.fix.railways value="false"/>
        <geometry.max-grade.fix value="false"/>
        <offset.disable-normalization value="true"/>
        <lefthand value="0"/>
    </processing>

    <junctions>
        <no-turnarounds value="true"/>
        <junctions.corner-detail value="5"/>
        <junctions.limit-turn-speed value="5.50"/>
        <rectangular-lane-cut value="0"/>
    </junctions>

    <pedestrian>
        <walkingareas value="0"/>
    </pedestrian>

    <netedit>
        <ignore.routeelements value="false"/>
    </netedit>

</configuration>
-->

<net version="1.20" junctionCornerDetail="5" limitTurnSpeed="5.50" xmlns:xsi="http://www.w3.org/2001/XMLSchema-instance" xsi:noNamespaceSchemaLocation="http://sumo.dlr.de/xsd/net_file.xsd">

    <location netOffset="0.00,0.00" convBoundary="-7.98,23.41,1178.60,155.55" origBoundary="-10000000000.00,-10000000000.00,10000000000.00,10000000000.00" projParameter="!"/>

    <edge id=":J1_0" function="internal">
        <lane id=":J1_0_0" index="0" speed="13.89" length="14.41" shape="207.01,59.26 221.42,59.30"/>
    </edge>
    <edge id=":J1_1" function="internal">
        <lane id=":J1_1_0" index="0" speed="7.29" length="11.76" shape="207.01,59.26 210.86,59.61 213.61,60.67 215.23,62.45 215.74,64.93"/>
        <lane id=":J1_1_1" index="1" speed="6.47" length="9.03" shape="207.01,59.26 209.46,59.61 211.21,60.66 212.23,62.42 212.54,64.88"/>
    </edge>
    <edge id=":J4_0" function="internal">
        <lane id=":J4_0_0" index="0" speed="13.89" length="11.20" shape="435.52,60.92 446.72,60.99"/>
    </edge>
    <edge id=":J4_1" function="internal">
        <lane id=":J4_1_0" index="0" speed="6.46" length="9.03" shape="435.52,60.92 437.98,61.29 439.71,62.36 440.71,64.13 440.99,66.60"/>
    </edge>

    <edge id="E0" from="J0" to="J1" priority="-1" shape="-5.93,61.15 136.15,60.96 214.21,60.85">
        <lane id="E0_0" index="0" speed="13.89" length="212.94" shape="-5.93,59.55 136.15,59.36 207.01,59.26"/>
    </edge>
    <edge id="E1" from="J4" to="J2" priority="-1">
        <lane id="E1_0" index="0" speed="13.89" length="89.04" shape="440.99,66.60 438.32,155.60"/>
    </edge>
    <edge id="E2" from="J1" to="J4" priority="-1" shape="214.21,60.85 345.04,61.84 439.51,62.55">
        <lane id="E2_0" index="0" speed="13.89" length="214.11" shape="221.42,59.30 345.05,60.24 435.52,60.92"/>
    </edge>
    <edge id="E3" from="J1" to="J5" priority="-1" spreadType="center">
        <lane id="E3_0" index="0" speed="13.89" length="85.47" shape="215.74,64.93 214.37,150.39"/>
        <lane id="E3_1" index="1" speed="13.89" length="85.47" shape="212.54,64.88 211.17,150.33"/>
    </edge>
    <edge id="E4" from="J6" to="J7" priority="-1" shape="-7.98,23.41 479.37,25.21 1178.60,30.43">
        <lane id="E4_0" index="0" speed="13.89" length="1186.61" shape="-7.97,21.81 479.38,23.61 1178.61,28.83"/>
    </edge>
    <edge id="E5" from="J4" to="J3" priority="-1" shape="439.51,62.55 486.07,62.82 575.31,63.48">
        <lane id="E5_0" index="0" speed="13.89" length="128.60" shape="446.72,60.99 486.08,61.22 575.32,61.88"/>
    </edge>

    <tlLogic id="J1" type="static" programID="0" offset="0">
        <phase duration="82" state="GGG"/>
        <phase duration="3"  state="yyy"/>
        <phase duration="5"  state="rrr"/>
    </tlLogic>

    <junction id="J0" type="dead_end" x="-5.93" y="61.15" incLanes="" intLanes="" shape="-5.93,61.15 -5.93,57.95"/>
    <junction id="J1" type="traffic_light" x="214.21" y="60.85" incLanes="E0_0" intLanes=":J1_0_0 :J1_1_0 :J1_1_1" shape="221.41,60.90 221.43,57.70 207.01,57.66 207.01,60.86 209.22,61.30 209.99,61.86 210.54,62.63 210.85,63.63 210.95,64.85 217.34,64.96 217.83,62.69 218.39,61.90 219.18,61.34 220.19,61.01" rightOfWay="allwayStop">
        <request index="0" response="000" foes="000" cont="0"/>
        <request index="1" response="000" foes="000" cont="0"/>
        <request index="2" response="000" foes="000" cont="0"/>
    </junction>
    <junction id="J2" type="dead_end" x="436.72" y="155.55" incLanes="E1_0" intLanes="" shape="439.92,155.64 436.72,155.55"/>
    <junction id="J3" type="dead_end" x="575.31" y="63.48" incLanes="E5_0" intLanes="" shape="575.33,60.28 575.31,63.48"/>
    <junction id="J4" type="priority" x="439.51" y="62.55" incLanes="E2_0" intLanes=":J4_0_0 :J4_1_0" shape="446.71,62.59 446.73,59.39 435.53,59.32 435.51,62.52 437.72,62.98 438.48,63.54 439.01,64.32 439.32,65.33 439.39,66.55 442.59,66.64 443.10,64.38 443.68,63.59 444.48,63.03 445.49,62.70">
        <request index="0" response="00" foes="00" cont="0"/>
        <request index="1" response="00" foes="00" cont="0"/>
    </junction>
    <junction id="J5" type="dead_end" x="212.77" y="150.36" incLanes="E3_0 E3_1" intLanes="" shape="215.97,150.41 209.57,150.31"/>
    <junction id="J6" type="dead_end" x="-7.98" y="23.41" incLanes="" intLanes="" shape="-7.98,23.41 -7.97,20.21"/>
    <junction id="J7" type="dead_end" x="1178.60" y="30.43" incLanes="E4_0" intLanes="" shape="1178.62,27.23 1178.60,30.43"/>

    <connection from="E0" to="E2" fromLane="0" toLane="0" via=":J1_0_0" tl="J1" linkIndex="0" dir="s" state="w"/>
    <connection from="E0" to="E3" fromLane="0" toLane="0" via=":J1_1_0" tl="J1" linkIndex="1" dir="l" state="w"/>
    <connection from="E0" to="E3" fromLane="0" toLane="1" via=":J1_1_1" tl="J1" linkIndex="2" dir="l" state="w"/>
    <connection from="E2" to="E5" fromLane="0" toLane="0" via=":J4_0_0" dir="s" state="M"/>
    <connection from="E2" to="E1" fromLane="0" toLane="0" via=":J4_1_0" dir="l" state="M"/>

    <connection from=":J1_0" to="E2" fromLane="0" toLane="0" dir="s" state="M"/>
    <connection from=":J1_1" to="E3" fromLane="0" toLane="0" dir="l" state="M"/>
    <connection from=":J1_1" to="E3" fromLane="1" toLane="1" dir="l" state="M"/>
    <connection from=":J4_0" to="E5" fromLane="0" toLane="0" dir="s" state="M"/>
    <connection from=":J4_1" to="E1" fromLane="0" toLane="0" dir="l" state="M"/>

</net>
